<?xml version="1.0" encoding="UTF-8"?>

<!-- generated on 2025-06-16 19:20:38 by Eclipse SUMO netedit Version 1.22.0
<neteditConfiguration xmlns:xsi="http://www.w3.org/2001/XMLSchema-instance" xsi:noNamespaceSchemaLocation="http://sumo.dlr.de/xsd/neteditConfiguration.xsd">

    <input>
        <sumocfg-file value="C:\Users\azar\Desktop\sumo\sumo5\chargstation.sumocfg"/>
        <additional-files value="C:\Users\azar\Desktop\sumo\sumo5\chargstation.add.xml"/>
        <route-files value="C:\Users\azar\Desktop\sumo\sumo5\chargstation.rou.xml"/>
        <sumo-net-file value="C:\Users\azar\Desktop\sumo\sumo5\chargstation.net.xml"/>
    </input>

    <output>
        <output-file value="C:\Users\azar\Desktop\sumo\sumo5\chargstation.net.xml"/>
    </output>

    <processing>
        <geometry.min-radius.fix.railways value="false"/>
        <geometry.max-grade.fix value="false"/>
        <offset.disable-normalization value="true"/>
        <lefthand value="0"/>
    </processing>

    <junctions>
        <no-turnarounds value="true"/>
        <junctions.corner-detail value="5"/>
        <junctions.limit-turn-speed value="5.50"/>
        <rectangular-lane-cut value="0"/>
    </junctions>

    <pedestrian>
        <walkingareas value="0"/>
    </pedestrian>

</neteditConfiguration>
-->

<net version="1.20" junctionCornerDetail="5" limitTurnSpeed="5.50" xmlns:xsi="http://www.w3.org/2001/XMLSchema-instance" xsi:noNamespaceSchemaLocation="http://sumo.dlr.de/xsd/net_file.xsd">

    <location netOffset="0.00,0.00" convBoundary="-383.45,-40.49,391.13,8.65" origBoundary="-10000000000.00,-10000000000.00,10000000000.00,10000000000.00" projParameter="!"/>

    <edge id=":J1_0" function="internal">
        <lane id=":J1_0_0" index="0" speed="6.51" length="9.03" shape="109.94,6.51 112.39,6.16 114.14,5.11 115.19,3.36 115.54,0.91"/>
        <lane id=":J1_0_1" index="1" speed="7.33" length="11.72" shape="109.94,6.51 113.79,6.16 116.54,5.11 118.19,3.36 118.74,0.91"/>
    </edge>
    <edge id=":J1_2" function="internal">
        <lane id=":J1_2_0" index="0" speed="13.89" length="14.38" shape="109.94,6.51 124.33,6.54"/>
        <lane id=":J1_2_1" index="1" speed="13.89" length="14.38" shape="109.94,9.71 124.32,9.74"/>
    </edge>
    <edge id=":J2_0" function="internal">
        <lane id=":J2_0_0" index="0" speed="6.08" length="7.74" shape="115.55,-40.49 115.85,-42.59 116.75,-44.09 118.25,-44.99 120.35,-45.29"/>
        <lane id=":J2_0_1" index="1" speed="3.90" length="2.58" shape="118.75,-40.49 118.85,-41.19 119.15,-41.69 119.65,-41.99 120.35,-42.09"/>
    </edge>
    <edge id=":J3_0" function="internal">
        <lane id=":J3_0_0" index="0" speed="6.08" length="7.74" shape="227.17,-45.29 229.27,-44.99 230.77,-44.09 231.67,-42.59 231.97,-40.49"/>
        <lane id=":J3_0_1" index="1" speed="3.90" length="2.58" shape="227.17,-42.09 227.87,-41.99 228.37,-41.69 228.67,-41.19 228.77,-40.49"/>
    </edge>
    <edge id=":J4_0" function="internal">
        <lane id=":J4_0_0" index="0" speed="6.51" length="9.04" shape="231.97,1.43 232.32,3.89 233.37,5.65 235.12,6.70 237.57,7.05"/>
        <lane id=":J4_0_1" index="1" speed="8.01" length="14.20" shape="228.77,1.43 229.32,5.29 230.97,8.05 233.72,9.70 237.57,10.25"/>
    </edge>
    <edge id=":J4_2" function="internal">
        <lane id=":J4_2_0" index="0" speed="13.89" length="14.42" shape="223.16,7.02 237.57,7.05"/>
        <lane id=":J4_2_1" index="1" speed="13.89" length="14.42" shape="223.15,10.22 237.57,10.25"/>
    </edge>
    <edge id=":J5_0" function="internal">
        <lane id=":J5_0_0" index="0" speed="13.89" length="0.10" shape="307.81,7.05 307.81,7.05"/>
        <lane id=":J5_0_1" index="1" speed="13.89" length="0.10" shape="307.81,10.25 307.81,10.25"/>
    </edge>

    <edge id="E0" from="J0" to="J1" priority="-1" spreadType="center" length="1200.00">
        <lane id="E0_0" index="0" speed="13.89" length="1200.00" shape="-383.45,6.67 109.94,6.51"/>
        <lane id="E0_1" index="1" speed="13.89" length="1200.00" shape="-383.45,9.87 109.94,9.71"/>
    </edge>
    <edge id="E1" from="J1" to="J2" priority="-1" spreadType="center">
        <lane id="E1_0" index="0" speed="13.89" length="41.40" shape="115.54,0.91 115.55,-40.49"/>
        <lane id="E1_1" index="1" speed="13.89" length="41.40" shape="118.74,0.91 118.75,-40.49"/>
    </edge>
    <edge id="E2" from="J2" to="J3" priority="-1" length="113.22">
        <lane id="E2_0" index="0" speed="13.89" length="113.22" shape="120.35,-45.29 227.17,-45.29"/>
        <lane id="E2_1" index="1" speed="13.89" length="113.22" shape="120.35,-42.09 227.17,-42.09"/>
    </edge>
    <edge id="E3" from="J3" to="J4" priority="-1" spreadType="center">
        <lane id="E3_0" index="0" speed="13.89" length="41.92" shape="231.97,-40.49 231.97,1.43"/>
        <lane id="E3_1" index="1" speed="13.89" length="41.92" shape="228.77,-40.49 228.77,1.43"/>
    </edge>
    <edge id="E4" from="J1" to="J4" priority="-1" spreadType="center" length="113.00">
        <lane id="E4_0" index="0" speed="13.89" length="113.00" shape="124.33,6.54 223.16,7.02"/>
        <lane id="E4_1" index="1" speed="13.89" length="113.00" shape="124.32,9.74 223.15,10.22"/>
    </edge>
    <edge id="E5" from="J4" to="J5" priority="-1" spreadType="center" length="200.00">
        <lane id="E5_0" index="0" speed="13.89" length="200.00" shape="237.57,7.05 307.81,7.05"/>
        <lane id="E5_1" index="1" speed="13.89" length="200.00" shape="237.57,10.25 307.81,10.25"/>
    </edge>
    <edge id="E6" from="J5" to="J6" priority="-1" spreadType="center" length="200.00">
        <lane id="E6_0" index="0" speed="13.89" length="200.00" shape="307.81,7.05 391.13,7.05"/>
        <lane id="E6_1" index="1" speed="13.89" length="200.00" shape="307.81,10.25 391.13,10.25"/>
    </edge>

    <tlLogic id="J5" type="static" programID="0" offset="0">
        <phase duration="82" state="GG"/>
        <phase duration="3"  state="yy"/>
        <phase duration="5"  state="rr"/>
    </tlLogic>

    <junction id="J0" type="dead_end" x="-383.45" y="8.27" incLanes="" intLanes="" shape="-383.45,11.47 -383.45,5.07"/>
    <junction id="J1" type="priority" x="117.14" y="8.11" incLanes="E0_0 E0_1" intLanes=":J1_0_0 :J1_0_1 :J1_2_0 :J1_2_1" shape="124.31,11.34 124.34,4.94 122.12,4.49 121.34,3.93 120.79,3.14 120.45,2.14 120.34,0.91 113.94,0.91 113.50,3.13 112.94,3.91 112.16,4.47 111.16,4.80 109.94,4.91 109.94,11.31">
        <request index="0" response="0000" foes="0000" cont="0"/>
        <request index="1" response="0000" foes="0000" cont="0"/>
        <request index="2" response="0000" foes="0000" cont="0"/>
        <request index="3" response="0000" foes="0000" cont="0"/>
    </junction>
    <junction id="J2" type="priority" x="117.15" y="-40.49" incLanes="E1_0 E1_1" intLanes=":J2_0_0 :J2_0_1" shape="120.35,-40.49 120.35,-46.89 116.80,-46.18 115.55,-45.29 114.66,-44.05 114.13,-42.45 113.95,-40.49">
        <request index="0" response="00" foes="00" cont="0"/>
        <request index="1" response="00" foes="00" cont="0"/>
    </junction>
    <junction id="J3" type="priority" x="230.37" y="-40.49" incLanes="E2_0 E2_1" intLanes=":J3_0_0 :J3_0_1" shape="227.17,-40.49 233.57,-40.49 232.86,-44.04 231.97,-45.29 230.73,-46.17 229.13,-46.71 227.17,-46.89">
        <request index="0" response="00" foes="00" cont="0"/>
        <request index="1" response="00" foes="00" cont="0"/>
    </junction>
    <junction id="J4" type="priority" x="230.37" y="8.65" incLanes="E3_0 E3_1 E4_0 E4_1" intLanes=":J4_0_0 :J4_0_1 :J4_2_0 :J4_2_1" shape="237.57,11.85 237.57,5.45 235.35,5.00 234.57,4.45 234.02,3.67 233.68,2.66 233.57,1.43 227.17,1.43 226.73,3.65 226.17,4.43 225.39,4.98 224.39,5.31 223.17,5.42 223.14,11.82">
        <request index="0" response="0000" foes="1100" cont="0"/>
        <request index="1" response="0000" foes="1100" cont="0"/>
        <request index="2" response="0011" foes="0011" cont="0"/>
        <request index="3" response="0011" foes="0011" cont="0"/>
    </junction>
    <junction id="J5" type="traffic_light" x="307.81" y="8.65" incLanes="E5_0 E5_1" intLanes=":J5_0_0 :J5_0_1" shape="307.81,11.85 307.81,5.45 307.81,11.85">
        <request index="0" response="00" foes="00" cont="0"/>
        <request index="1" response="00" foes="00" cont="0"/>
    </junction>
    <junction id="J6" type="dead_end" x="391.13" y="8.65" incLanes="E6_0 E6_1" intLanes="" shape="391.13,5.45 391.13,11.85"/>

    <connection from="E0" to="E1" fromLane="0" toLane="0" via=":J1_0_0" dir="r" state="M"/>
    <connection from="E0" to="E1" fromLane="0" toLane="1" via=":J1_0_1" dir="r" state="M"/>
    <connection from="E0" to="E4" fromLane="0" toLane="0" via=":J1_2_0" dir="s" state="M"/>
    <connection from="E0" to="E4" fromLane="1" toLane="1" via=":J1_2_1" dir="s" state="M"/>
    <connection from="E1" to="E2" fromLane="0" toLane="0" via=":J2_0_0" dir="l" state="M"/>
    <connection from="E1" to="E2" fromLane="1" toLane="1" via=":J2_0_1" dir="l" state="M"/>
    <connection from="E2" to="E3" fromLane="0" toLane="0" via=":J3_0_0" dir="l" state="M"/>
    <connection from="E2" to="E3" fromLane="1" toLane="1" via=":J3_0_1" dir="l" state="M"/>
    <connection from="E3" to="E5" fromLane="0" toLane="0" via=":J4_0_0" dir="r" state="M"/>
    <connection from="E3" to="E5" fromLane="1" toLane="1" via=":J4_0_1" dir="r" state="M"/>
    <connection from="E4" to="E5" fromLane="0" toLane="0" via=":J4_2_0" dir="s" state="m"/>
    <connection from="E4" to="E5" fromLane="1" toLane="1" via=":J4_2_1" dir="s" state="m"/>
    <connection from="E5" to="E6" fromLane="0" toLane="0" via=":J5_0_0" tl="J5" linkIndex="0" dir="s" state="O"/>
    <connection from="E5" to="E6" fromLane="1" toLane="1" via=":J5_0_1" tl="J5" linkIndex="1" dir="s" state="O"/>

    <connection from=":J1_0" to="E1" fromLane="0" toLane="0" dir="r" state="M"/>
    <connection from=":J1_0" to="E1" fromLane="1" toLane="1" dir="r" state="M"/>
    <connection from=":J1_2" to="E4" fromLane="0" toLane="0" dir="s" state="M"/>
    <connection from=":J1_2" to="E4" fromLane="1" toLane="1" dir="s" state="M"/>
    <connection from=":J2_0" to="E2" fromLane="0" toLane="0" dir="l" state="M"/>
    <connection from=":J2_0" to="E2" fromLane="1" toLane="1" dir="l" state="M"/>
    <connection from=":J3_0" to="E3" fromLane="0" toLane="0" dir="l" state="M"/>
    <connection from=":J3_0" to="E3" fromLane="1" toLane="1" dir="l" state="M"/>
    <connection from=":J4_0" to="E5" fromLane="0" toLane="0" dir="r" state="M"/>
    <connection from=":J4_0" to="E5" fromLane="1" toLane="1" dir="r" state="M"/>
    <connection from=":J4_2" to="E5" fromLane="0" toLane="0" dir="s" state="M"/>
    <connection from=":J4_2" to="E5" fromLane="1" toLane="1" dir="s" state="M"/>
    <connection from=":J5_0" to="E6" fromLane="0" toLane="0" dir="s" state="M"/>
    <connection from=":J5_0" to="E6" fromLane="1" toLane="1" dir="s" state="M"/>

</net>
