<?xml version="1.0" encoding="UTF-8"?>

<!-- generated on 2025-06-16 19:14:18 by Eclipse SUMO netedit Version 1.22.0
-->

<routes xmlns:xsi="http://www.w3.org/2001/XMLSchema-instance" xsi:noNamespaceSchemaLocation="http://sumo.dlr.de/xsd/routes_file.xsd">
    <!-- Vehicles, persons and containers (sorted by depart) -->
     <vType id="ePKW" vClass="evehicle" emissionClass="Energy/unknown" guiShape="passenger"
        color="cyan" mass="1500" length="5">
        <param key="has.battery.device" value="true" />
        <!-- ***** تغییر در اینجا ***** -->
        <param key="device.battery.capacity" value="30000" /> <!-- Wh -->
        <!-- ***** پایان تغییر ***** -->
        <param key="maximumPower" value="100000" /> <!-- W (این توان موتور است، نه لزوماً توان شارژ
        باتری) -->
        <param key="frontSurfaceArea" value="2.2" />
        <param key="airDragCoefficient" value="0.3" />
        <param key="rotatingMass" value="40" />
        <param key="radialDragCoefficient" value="0.1" />
        <param key="rollDragCoefficient" value="0.01" />
        <param key="constantPowerIntake" value="500" /> <!-- W, e.g. for AC, lights -->
        <param key="propulsionEfficiency" value="0.9" />
        <param key="recuperationEfficiency" value="0.9" />
        <param key="stoppingThreshold" value="0.1" />

    </vType>
    <flow id="f_0" type="ePKW" begin="0.00" s fromJunction="J0" toJunction="J6" end="3600.00" vehsPerHour="200"/>
</routes>
