<?xml version="1.0" encoding="UTF-8"?>

<!-- generated on 2025-06-16 19:22:16 by Eclipse SUMO netedit Version 1.22.0
-->

<additional xmlns:xsi="http://www.w3.org/2001/XMLSchema-instance" xsi:noNamespaceSchemaLocation="http://sumo.dlr.de/xsd/additional_file.xsd">
    <!-- StoppingPlaces -->
    <chargingStation id="cs_0" lane="E2_0" startPos="75.84" endPos="85.84"/>
</additional>
