<?xml version="1.0" encoding="UTF-8"?>

<!-- generated on 2025-06-14 13:47:59 by Eclipse SUMO netedit Version 1.22.0
<neteditConfiguration xmlns:xsi="http://www.w3.org/2001/XMLSchema-instance"
xsi:noNamespaceSchemaLocation="http://sumo.dlr.de/xsd/neteditConfiguration.xsd">

    <input>
        <sumocfg-file value="C:\Users\azar\Desktop\sumo\sumo5\chargstation.sumocfg"/>
        <sumo-net-file value="C:\Users\azar\Desktop\sumo\sumo5\chargstation.net.xml"/>
    </input>

    <output>
        <output-file value="C:\Users\azar\Desktop\sumo\sumo5\chargstation.net.xml"/>
    </output>

    <processing>
        <offset.disable-normalization value="true"/>
    </processing>

    <junctions>
        <no-turnarounds value="true"/>
    </junctions>

    <netedit>
        <new-network value="false"/>
    </netedit>

</neteditConfiguration>
-->

<net version="1.20" junctionCornerDetail="5" limitTurnSpeed="5.50"
    xmlns:xsi="http://www.w3.org/2001/XMLSchema-instance"
    xsi:noNamespaceSchemaLocation="http://sumo.dlr.de/xsd/net_file.xsd">

    <location netOffset="0.00,0.00" convBoundary="-191.04,-38.05,380.47,34.52"
        origBoundary="10000000000.00,10000000000.00,-10000000000.00,-10000000000.00"
        projParameter="!" />

    <edge id=":J1_0" function="internal">
        <lane id=":J1_0_0" index="0" speed="13.89" length="14.40" shape="54.06,-0.43 68.46,-0.43" />
        <lane id=":J1_0_1" index="1" speed="13.89" length="14.40" shape="54.06,2.77 68.46,2.77" />
    </edge>
    <edge id=":J1_2" function="internal">
        <lane id=":J1_2_0" index="0" speed="7.33" length="11.73"
            shape="54.06,2.77 57.91,3.12 60.66,4.17 62.31,5.92 62.86,8.37" />
        <lane id=":J1_2_1" index="1" speed="6.51" length="9.03"
            shape="54.06,2.77 56.51,3.12 58.26,4.17 59.31,5.92 59.66,8.37" />
    </edge>
    <edge id=":J2_0" function="internal">
        <lane id=":J2_0_0" index="0" speed="13.89" length="14.40" shape="105.35,-0.43 119.76,-0.42" />
        <lane id=":J2_0_1" index="1" speed="13.89" length="14.40" shape="105.35,2.77 119.75,2.78" />
    </edge>
    <edge id=":J2_2" function="internal">
        <lane id=":J2_2_0" index="0" speed="7.33" length="11.73"
            shape="105.35,2.77 109.20,3.12 111.95,4.17 113.60,5.92 114.15,8.37" />
        <lane id=":J2_2_1" index="1" speed="6.51" length="9.03"
            shape="105.35,2.77 107.80,3.12 109.55,4.17 110.60,5.92 110.95,8.37" />
    </edge>
    <edge id=":J4_0" function="internal">
        <lane id=":J4_0_0" index="0" speed="3.90" length="2.57"
            shape="62.86,31.17 62.96,31.86 63.26,32.36 63.76,32.66 64.45,32.77" />
        <lane id=":J4_0_1" index="1" speed="6.08" length="7.72"
            shape="59.66,31.17 59.96,33.26 60.85,34.76 62.35,35.66 64.44,35.97" />
    </edge>
    <edge id=":J5_0" function="internal">
        <lane id=":J5_0_0" index="0" speed="6.50" length="9.03"
            shape="199.65,-0.32 202.10,-0.67 203.86,-1.72 204.91,-3.47 205.26,-5.92" />
        <lane id=":J5_0_1" index="1" speed="7.32" length="11.73"
            shape="199.65,-0.32 203.50,-0.67 206.26,-1.72 207.91,-3.47 208.46,-5.92" />
    </edge>
    <edge id=":J5_2" function="internal">
        <lane id=":J5_2_0" index="0" speed="13.89" length="14.40" shape="199.65,-0.32 214.06,-0.31" />
        <lane id=":J5_2_1" index="1" speed="13.89" length="14.40" shape="199.65,2.88 214.06,2.89" />
    </edge>
    <edge id=":J6_0" function="internal">
        <lane id=":J6_0_0" index="0" speed="6.51" length="9.03"
            shape="265.43,-5.91 265.77,-3.46 266.82,-1.71 268.57,-0.66 271.02,-0.31" />
        <lane id=":J6_0_1" index="1" speed="8.00" length="14.20"
            shape="262.23,-5.92 262.77,-2.07 264.42,0.69 267.17,2.34 271.02,2.89" />
    </edge>
    <edge id=":J6_2" function="internal">
        <lane id=":J6_2_0" index="0" speed="13.89" length="14.40" shape="256.62,-0.31 271.02,-0.31" />
        <lane id=":J6_2_1" index="1" speed="13.89" length="14.40" shape="256.62,2.89 271.02,2.89" />
    </edge>
    <edge id=":J7_0" function="internal">
        <lane id=":J7_0_0" index="0" speed="6.08" length="7.74"
            shape="205.26,-34.85 205.56,-36.95 206.46,-38.45 207.96,-39.35 210.06,-39.65" />
        <lane id=":J7_0_1" index="1" speed="3.90" length="2.58"
            shape="208.46,-34.85 208.56,-35.55 208.86,-36.05 209.36,-36.35 210.06,-36.45" />
    </edge>
    <edge id=":J8_0" function="internal">
        <lane id=":J8_0_0" index="0" speed="6.08" length="7.75"
            shape="260.65,-39.65 262.75,-39.35 264.25,-38.45 265.15,-36.95 265.45,-34.85" />
        <lane id=":J8_0_1" index="1" speed="3.90" length="2.58"
            shape="260.65,-36.45 261.35,-36.35 261.85,-36.05 262.15,-35.55 262.25,-34.85" />
    </edge>
    <edge id=":J9_0" function="internal">
        <lane id=":J9_0_0" index="0" speed="13.89" length="0.10" shape="334.80,-0.31 334.80,-0.31" />
        <lane id=":J9_0_1" index="1" speed="13.89" length="0.10" shape="334.80,2.89 334.80,2.89" />
    </edge>

    <edge id="E0" from="J0" to="J1" priority="-1" spreadType="center" length="1500.00">
        <lane id="E0_0" index="0" speed="13.89" length="1500.00" shape="-191.04,-0.43 54.06,-0.43" />
        <lane id="E0_1" index="1" speed="13.89" length="1500.00" shape="-191.04,2.77 54.06,2.77" />
    </edge>
    <edge id="E1" from="J1" to="J2" priority="-1" spreadType="center" length="150.00">
        <lane id="E1_0" index="0" speed="13.89" length="150.00" shape="68.46,-0.43 105.35,-0.43" />
        <lane id="E1_1" index="1" speed="13.89" length="150.00" shape="68.46,2.77 105.35,2.77" />
    </edge>
    <edge id="E10" from="J6" to="J9" priority="-1" spreadType="center" length="100.00">
        <lane id="E10_0" index="0" speed="13.89" length="100.00" shape="271.02,-0.31 334.80,-0.31" />
        <lane id="E10_1" index="1" speed="13.89" length="100.00" shape="271.02,2.89 334.80,2.89" />
    </edge>
    <edge id="E11" from="J9" to="J10" priority="-1" spreadType="center" length="100.00">
        <lane id="E11_0" index="0" speed="13.89" length="100.00" shape="334.80,-0.31 380.47,-0.31" />
        <lane id="E11_1" index="1" speed="13.89" length="100.00" shape="334.80,2.89 380.47,2.89" />
    </edge>
    <edge id="E2" from="J2" to="J3" priority="-1" spreadType="center" length="100.00">
        <lane id="E2_0" index="0" speed="13.89" length="100.00" shape="114.15,8.37 114.15,29.81" />
        <lane id="E2_1" index="1" speed="13.89" length="100.00" shape="110.95,8.37 110.95,29.81" />
    </edge>
    <edge id="E3" from="J1" to="J4" priority="-1" spreadType="center" length="100.00">
        <lane id="E3_0" index="0" speed="13.89" length="100.00" shape="62.86,8.37 62.86,31.17" />
        <lane id="E3_1" index="1" speed="13.89" length="100.00" shape="59.66,8.37 59.66,31.17" />
    </edge>
    <edge id="E4" from="J4" to="J3" priority="-1" spreadType="center" length="150.00">
        <lane id="E4_0" index="0" speed="13.89" length="150.00" shape="64.45,32.77 107.84,32.90" />
        <lane id="E4_1" index="1" speed="13.89" length="150.00" shape="64.44,35.97 107.83,36.10" />
    </edge>
    <edge id="E5" from="J2" to="J5" priority="-1" spreadType="center" length="200.00">
        <lane id="E5_0" index="0" speed="13.89" length="200.00" shape="119.76,-0.42 199.65,-0.32" />
        <lane id="E5_1" index="1" speed="13.89" length="200.00" shape="119.75,2.78 199.65,2.88" />
    </edge>
    <edge id="E6" from="J5" to="J6" priority="-1" spreadType="center" length="150.00">
        <lane id="E6_0" index="0" speed="13.89" length="150.00" shape="214.06,-0.31 256.62,-0.31" />
        <lane id="E6_1" index="1" speed="13.89" length="150.00" shape="214.06,2.89 256.62,2.89" />
    </edge>
    <edge id="E7" from="J5" to="J7" priority="-1" spreadType="center" length="100.00">
        <lane id="E7_0" index="0" speed="13.89" length="100.00" shape="205.26,-5.92 205.26,-34.85" />
        <lane id="E7_1" index="1" speed="13.89" length="100.00" shape="208.46,-5.92 208.46,-34.85" />
    </edge>
    <edge id="E8" from="J7" to="J8" priority="-1" spreadType="center" length="150.00">
        <lane id="E8_0" index="0" speed="13.89" length="150.00" shape="210.06,-39.65 260.65,-39.65" />
        <lane id="E8_1" index="1" speed="13.89" length="150.00" shape="210.06,-36.45 260.65,-36.45" />
    </edge>
    <edge id="E9" from="J8" to="J6" priority="-1" spreadType="center" length="100.00">
        <lane id="E9_0" index="0" speed="13.89" length="100.00" shape="265.45,-34.85 265.43,-5.91" />
        <lane id="E9_1" index="1" speed="13.89" length="100.00" shape="262.25,-34.85 262.23,-5.92" />
    </edge>

    <tlLogic id="J9" type="static" programID="0" offset="0">
        <phase duration="82" state="GG" />
        <phase duration="3" state="yy" />
        <phase duration="5" state="rr" />
    </tlLogic>

    <junction id="J0" type="dead_end" x="-191.04" y="1.17" incLanes="" intLanes=""
        shape="-191.04,4.37 -191.04,-2.03" />
    <junction id="J1" type="priority" x="61.26" y="1.17" incLanes="E0_0 E0_1"
        intLanes=":J1_0_0 :J1_0_1 :J1_2_0 :J1_2_1"
        shape="58.06,8.37 64.46,8.37 64.90,6.14 65.46,5.37 66.24,4.81 67.24,4.48 68.46,4.37 68.46,-2.03 54.06,-2.03 54.06,4.37 56.28,4.81 57.06,5.37 57.61,6.14 57.95,7.14">
        <request index="0" response="0000" foes="0000" cont="0" />
        <request index="1" response="0000" foes="0000" cont="0" />
        <request index="2" response="0000" foes="0000" cont="0" />
        <request index="3" response="0000" foes="0000" cont="0" />
    </junction>
    <junction id="J10" type="dead_end" x="380.47" y="1.29" incLanes="E11_0 E11_1" intLanes=""
        shape="380.47,-1.91 380.47,4.49" />
    <junction id="J2" type="priority" x="112.55" y="1.17" incLanes="E1_0 E1_1"
        intLanes=":J2_0_0 :J2_0_1 :J2_2_0 :J2_2_1"
        shape="109.35,8.37 115.75,8.37 116.19,6.15 116.75,5.37 117.53,4.82 118.53,4.49 119.75,4.38 119.76,-2.02 105.35,-2.03 105.35,4.37 107.57,4.81 108.35,5.37 108.91,6.15 109.24,7.15">
        <request index="0" response="0000" foes="0000" cont="0" />
        <request index="1" response="0000" foes="0000" cont="0" />
        <request index="2" response="0000" foes="0000" cont="0" />
        <request index="3" response="0000" foes="0000" cont="0" />
    </junction>
    <junction id="J3" type="dead_end" x="112.55" y="34.52" incLanes="E2_0 E2_1 E4_0 E4_1"
        intLanes=""
        shape="115.75,29.81 109.35,29.81 109.18,30.64 108.97,30.93 108.68,31.14 108.31,31.26 107.85,31.30 107.83,37.70 110.25,37.49 112.23,36.84 113.77,35.74 114.87,34.21 115.53,32.23" />
    <junction id="J4" type="priority" x="61.26" y="34.36" incLanes="E3_0 E3_1"
        intLanes=":J4_0_0 :J4_0_1"
        shape="64.44,37.57 64.46,31.17 58.06,31.17 58.77,34.71 59.65,35.96 60.89,36.85 62.49,37.38">
        <request index="0" response="00" foes="00" cont="0" />
        <request index="1" response="00" foes="00" cont="0" />
    </junction>
    <junction id="J5" type="priority" x="206.86" y="1.29" incLanes="E5_0 E5_1"
        intLanes=":J5_0_0 :J5_0_1 :J5_2_0 :J5_2_1"
        shape="214.06,4.49 214.06,-1.91 211.83,-2.36 211.06,-2.91 210.50,-3.69 210.17,-4.69 210.06,-5.92 203.66,-5.92 203.21,-3.70 202.66,-2.92 201.88,-2.36 200.88,-2.03 199.66,-1.92 199.65,4.48">
        <request index="0" response="0000" foes="0000" cont="0" />
        <request index="1" response="0000" foes="0000" cont="0" />
        <request index="2" response="0000" foes="0000" cont="0" />
        <request index="3" response="0000" foes="0000" cont="0" />
    </junction>
    <junction id="J6" type="priority" x="263.82" y="1.29" incLanes="E9_0 E9_1 E6_0 E6_1"
        intLanes=":J6_0_0 :J6_0_1 :J6_2_0 :J6_2_1"
        shape="271.02,4.49 271.02,-1.91 268.80,-2.36 268.02,-2.91 267.47,-3.69 267.14,-4.69 267.03,-5.91 260.63,-5.92 260.18,-3.69 259.62,-2.91 258.85,-2.36 257.85,-2.02 256.62,-1.91 256.62,4.49">
        <request index="0" response="0000" foes="1100" cont="0" />
        <request index="1" response="0000" foes="1100" cont="0" />
        <request index="2" response="0011" foes="0011" cont="0" />
        <request index="3" response="0011" foes="0011" cont="0" />
    </junction>
    <junction id="J7" type="priority" x="206.86" y="-38.05" incLanes="E7_0 E7_1"
        intLanes=":J7_0_0 :J7_0_1"
        shape="203.66,-34.85 210.06,-34.85 210.06,-41.25 206.50,-40.54 205.26,-39.65 204.37,-38.40 203.83,-36.80">
        <request index="0" response="00" foes="00" cont="0" />
        <request index="1" response="00" foes="00" cont="0" />
    </junction>
    <junction id="J8" type="priority" x="263.85" y="-38.05" incLanes="E8_0 E8_1"
        intLanes=":J8_0_0 :J8_0_1"
        shape="260.65,-41.25 260.65,-34.85 267.05,-34.85 266.34,-38.40 265.45,-39.65 264.21,-40.54 262.60,-41.07">
        <request index="0" response="00" foes="00" cont="0" />
        <request index="1" response="00" foes="00" cont="0" />
    </junction>
    <junction id="J9" type="traffic_light" x="334.80" y="1.29" incLanes="E10_0 E10_1"
        intLanes=":J9_0_0 :J9_0_1" shape="334.80,4.49 334.80,-1.91 334.80,4.49">
        <request index="0" response="00" foes="00" cont="0" />
        <request index="1" response="00" foes="00" cont="0" />
    </junction>

    <connection from="E0" to="E1" fromLane="0" toLane="0" via=":J1_0_0" dir="s" state="M" />
    <connection from="E0" to="E1" fromLane="1" toLane="1" via=":J1_0_1" dir="s" state="M" />
    <connection from="E0" to="E3" fromLane="1" toLane="0" via=":J1_2_0" dir="l" state="M" />
    <connection from="E0" to="E3" fromLane="1" toLane="1" via=":J1_2_1" dir="l" state="M" />
    <connection from="E1" to="E5" fromLane="0" toLane="0" via=":J2_0_0" dir="s" state="M" />
    <connection from="E1" to="E5" fromLane="1" toLane="1" via=":J2_0_1" dir="s" state="M" />
    <connection from="E1" to="E2" fromLane="1" toLane="0" via=":J2_2_0" dir="l" state="M" />
    <connection from="E1" to="E2" fromLane="1" toLane="1" via=":J2_2_1" dir="l" state="M" />
    <connection from="E10" to="E11" fromLane="0" toLane="0" via=":J9_0_0" tl="J9" linkIndex="0"
        dir="s" state="O" />
    <connection from="E10" to="E11" fromLane="1" toLane="1" via=":J9_0_1" tl="J9" linkIndex="1"
        dir="s" state="O" />
    <connection from="E3" to="E4" fromLane="0" toLane="0" via=":J4_0_0" dir="r" state="M" />
    <connection from="E3" to="E4" fromLane="1" toLane="1" via=":J4_0_1" dir="r" state="M" />
    <connection from="E5" to="E7" fromLane="0" toLane="0" via=":J5_0_0" dir="r" state="M" />
    <connection from="E5" to="E7" fromLane="0" toLane="1" via=":J5_0_1" dir="r" state="M" />
    <connection from="E5" to="E6" fromLane="0" toLane="0" via=":J5_2_0" dir="s" state="M" />
    <connection from="E5" to="E6" fromLane="1" toLane="1" via=":J5_2_1" dir="s" state="M" />
    <connection from="E6" to="E10" fromLane="0" toLane="0" via=":J6_2_0" dir="s" state="m" />
    <connection from="E6" to="E10" fromLane="1" toLane="1" via=":J6_2_1" dir="s" state="m" />
    <connection from="E7" to="E8" fromLane="0" toLane="0" via=":J7_0_0" dir="l" state="M" />
    <connection from="E7" to="E8" fromLane="1" toLane="1" via=":J7_0_1" dir="l" state="M" />
    <connection from="E8" to="E9" fromLane="0" toLane="0" via=":J8_0_0" dir="l" state="M" />
    <connection from="E8" to="E9" fromLane="1" toLane="1" via=":J8_0_1" dir="l" state="M" />
    <connection from="E9" to="E10" fromLane="0" toLane="0" via=":J6_0_0" dir="r" state="M" />
    <connection from="E9" to="E10" fromLane="1" toLane="1" via=":J6_0_1" dir="r" state="M" />

    <connection from=":J1_0" to="E1" fromLane="0" toLane="0" dir="s" state="M" />
    <connection from=":J1_0" to="E1" fromLane="1" toLane="1" dir="s" state="M" />
    <connection from=":J1_2" to="E3" fromLane="0" toLane="0" dir="l" state="M" />
    <connection from=":J1_2" to="E3" fromLane="1" toLane="1" dir="l" state="M" />
    <connection from=":J2_0" to="E5" fromLane="0" toLane="0" dir="s" state="M" />
    <connection from=":J2_0" to="E5" fromLane="1" toLane="1" dir="s" state="M" />
    <connection from=":J2_2" to="E2" fromLane="0" toLane="0" dir="l" state="M" />
    <connection from=":J2_2" to="E2" fromLane="1" toLane="1" dir="l" state="M" />
    <connection from=":J4_0" to="E4" fromLane="0" toLane="0" dir="r" state="M" />
    <connection from=":J4_0" to="E4" fromLane="1" toLane="1" dir="r" state="M" />
    <connection from=":J5_0" to="E7" fromLane="0" toLane="0" dir="r" state="M" />
    <connection from=":J5_0" to="E7" fromLane="1" toLane="1" dir="r" state="M" />
    <connection from=":J5_2" to="E6" fromLane="0" toLane="0" dir="s" state="M" />
    <connection from=":J5_2" to="E6" fromLane="1" toLane="1" dir="s" state="M" />
    <connection from=":J6_0" to="E10" fromLane="0" toLane="0" dir="r" state="M" />
    <connection from=":J6_0" to="E10" fromLane="1" toLane="1" dir="r" state="M" />
    <connection from=":J6_2" to="E10" fromLane="0" toLane="0" dir="s" state="M" />
    <connection from=":J6_2" to="E10" fromLane="1" toLane="1" dir="s" state="M" />
    <connection from=":J7_0" to="E8" fromLane="0" toLane="0" dir="l" state="M" />
    <connection from=":J7_0" to="E8" fromLane="1" toLane="1" dir="l" state="M" />
    <connection from=":J8_0" to="E9" fromLane="0" toLane="0" dir="l" state="M" />
    <connection from=":J8_0" to="E9" fromLane="1" toLane="1" dir="l" state="M" />
    <connection from=":J9_0" to="E11" fromLane="0" toLane="0" dir="s" state="M" />
    <connection from=":J9_0" to="E11" fromLane="1" toLane="1" dir="s" state="M" />

</net>